<routes>
    <vType id="car" accel="2.6" decel="4.5" sigma="0.5" length="5" maxSpeed="13.9"/>

    <route id="left_to_right" edges="left0A0 A0right0"/>
    <route id="right_to_left" edges="right0A0 A0left0"/>
    <route id="top_to_bottom" edges="top0A0 A0bottom0"/>
    <route id="bottom_to_top" edges="bottom0A0 A0top0"/>

    <flow id="flow_left_right" route="left_to_right" type="car" begin="0" end="1000" probability="0.10"/>
    <flow id="flow_right_left" route="right_to_left" type="car" begin="0" end="1000" probability="0.10"/>
    <flow id="flow_top_bottom" route="top_to_bottom" type="car" begin="0" end="1000" probability="0.10"/>
    <flow id="flow_bottom_top" route="bottom_to_top" type="car" begin="0" end="1000" probability="0.10"/>
</routes>